@<TRIPOS>MOLECULE
mol
    4     3     1     0     0
SMALL
bcc


@<TRIPOS>ATOM
      1 C            0.0000    -1.0330     0.0000 c          1 mol       0.179000
      2 S            0.0000     0.7910     0.0000 s          1 mol      -0.209400
      3 H           -0.9370    -1.6310     0.0000 h4         1 mol       0.015200
      4 H1           0.9370    -1.6310     0.0000 h4         1 mol       0.015200
@<TRIPOS>BOND
     1     1     2 2   
     2     1     3 1   
     3     1     4 1   
@<TRIPOS>SUBSTRUCTURE
     1 mol         1 TEMP              0 ****  ****    0 ROOT
